Circuit: * E:\git\Simulacion-de-circuitos-electronicos\docs\Ejemplos\Fourier\E3-RLC-options.asc

.OP point found by inspection.
N-Period=all
Fourier components of V(salida)
DC component:-4.94558e-005

Harmonic	Frequency	 Fourier 	Normalized	 Phase  	Normalized
 Number 	  [Hz]   	Component	 Component	[degree]	Phase [deg]
    1   	1.000e+05	1.853e-03	1.000e+00	 -175.95°	    0.00°
    2   	2.000e+05	9.434e-04	5.090e-01	 -176.00°	   -0.06°
    3   	3.000e+05	6.035e-04	3.256e-01	  178.65°	  354.60°
    4   	4.000e+05	4.045e-04	2.183e-01	  179.79°	  355.73°
    5   	5.000e+05	3.890e-04	2.099e-01	  177.78°	  353.73°
    6   	6.000e+05	2.860e-04	1.543e-01	 -176.86°	   -0.92°
    7   	7.000e+05	2.449e-04	1.321e-01	 -175.78°	    0.17°
    8   	8.000e+05	2.591e-04	1.398e-01	  178.16°	  354.10°
    9   	9.000e+05	9.031e-05	4.873e-02	  107.92°	  283.87°
   10   	1.000e+06	5.898e-06	3.182e-03	   91.22°	  267.17°
Total Harmonic Distortion: 72.114717%(78713.157842%)



Date: Thu Aug 13 16:30:12 2020
Total elapsed time: 0.328 seconds.

tnom = 27
temp = 27
method = modified trap
totiter = 3710
traniter = 3710
tranpoints = 1856
accept = 1427
rejected = 429
matrix size = 4
fillins = 0
solver = Normal
Matrix Compiler1: 136 bytes object code size  0.2/0.2/[0.2]
Matrix Compiler2: off  [0.1]/0.2/0.2

