Circuit: * E:\git\Simulacion-de-circuitos-electronicos\docs\Ejemplos\Tipos\Draft2.asc

.OP point found by inspection.
.step ib=0
.step ib=0.001
.step ib=0.002
.step ib=0.003
.step ib=0.004
.step ib=0.005

Date: Mon Jul 27 19:27:42 2020
Total elapsed time: 0.230 seconds.

tnom = 27
temp = 27
method = trap
totiter = 1810
traniter = 0
tranpoints = 0
accept = 0
rejected = 0
matrix size = 6
fillins = 0
solver = Normal
Matrix Compiler1: 360 bytes object code size  0.2/0.1/[0.1]
Matrix Compiler2: 462 bytes object code size  0.1/0.2/[0.1]

