Circuit: * E:\git\Simulacion-de-circuitos-electronicos\docs\Ejemplos\Tipos\Draft1.asc

Warning: Multiple definitions of model "1n4007" Type: Diode
.OP point found by inspection.

Date: Sun Aug 09 17:39:47 2020
Total elapsed time: 0.214 seconds.

tnom = 27
temp = 27
method = trap
totiter = 2001
traniter = 0
tranpoints = 0
accept = 0
rejected = 0
matrix size = 3
fillins = 0
solver = Normal
Matrix Compiler1: 86 bytes object code size  0.1/0.1/[0.0]
Matrix Compiler2: 163 bytes object code size  0.1/0.1/[0.1]

