Circuit: * E:\git\Simulacion-de-circuitos-electronicos\docs\Ejemplos\Tipos\Draft4.asc

Error on line 2 : v1 nc_01 nc_02 v
	 Unknown parameter "v"
Fatal Error: No analysis request found.
