Circuit: * E:\git\Simulacion-de-circuitos-electronicos\docs\Ejemplos\Tipos\E2-barridoDC-BC547B.asc

.OP point found by inspection.
.step ib=0
.step ib=1e-005
.step ib=2e-005
.step ib=3e-005
.step ib=4e-005
.step ib=5e-005

Date: Mon Jul 27 20:07:18 2020
Total elapsed time: 0.193 seconds.

tnom = 27
temp = 27
method = trap
totiter = 1813
traniter = 0
tranpoints = 0
accept = 0
rejected = 0
matrix size = 7
fillins = 0
solver = Normal
Matrix Compiler1: 410 bytes object code size  0.1/0.1/[0.1]
Matrix Compiler2: 535 bytes object code size  0.1/0.1/[0.1]

