Circuit: * E:\git\Simulacion-de-circuitos-electronicos\docs\Ejemplos\Tipos\E2-barridoDC-1N4148.asc

.OP point found by inspection.

Date: Mon Jul 27 12:10:32 2020
Total elapsed time: 0.164 seconds.

tnom = 27
temp = 27
method = trap
totiter = 102
traniter = 0
tranpoints = 0
accept = 0
rejected = 0
matrix size = 4
fillins = 0
solver = Normal
Matrix Compiler1: 100 bytes object code size  0.1/0.1/[0.1]
Matrix Compiler2: 248 bytes object code size  0.1/0.2/[0.1]

