Circuit: * E:\git\Simulacion-de-circuitos-electronicos\docs\Ejemplos\Tipos\E3-rectificador-media-onda.asc

.OP point found by inspection.

Date: Tue Jul 28 12:58:38 2020
Total elapsed time: 0.455 seconds.

tnom = 27
temp = 27
method = modified trap
totiter = 20034
traniter = 20034
tranpoints = 10018
accept = 10018
rejected = 0
matrix size = 8
fillins = 5
solver = Normal
Matrix Compiler1: 572 bytes object code size  0.2/0.2/[0.1]
Matrix Compiler2: 656 bytes object code size  0.1/0.2/[0.1]

