Circuit: * E:\git\Simulacion-de-circuitos-electronicos\docs\Ejemplos\Tipos\E5-parametrico.asc

.OP point found by inspection.
.step cap=1e-005
.step cap=4e-005
.step cap=7e-005
.step cap=0.0001
.step cap=0.00013
.step cap=0.00016
.step cap=0.00019
.step cap=0.00022

Date: Thu Jul 30 19:08:41 2020
Total elapsed time: 1.044 seconds.

tnom = 27
temp = 27
method = modified trap
totiter = 2072
traniter = 2072
tranpoints = 1037
accept = 1034
rejected = 3
matrix size = 3
fillins = 0
solver = Normal
Matrix Compiler1: off  [0.0]/0.1/0.1
Matrix Compiler2: off  [0.1]/0.1/0.1

