Circuit: * E:\git\Simulacion-de-circuitos-electronicos\docs\Ejemplos\Mas-conceptos\Draft1.asc

.OP point found by inspection.
.step ib=0
.step ib=2.5e-005
.step ib=5e-005
.step ib=7.5e-005
.step ib=0.0001

Date: Wed Aug 19 17:15:28 2020
Total elapsed time: 0.192 seconds.

tnom = 27
temp = 27
method = trap
totiter = 15033
traniter = 0
tranpoints = 0
accept = 0
rejected = 0
matrix size = 5
fillins = 0
solver = Normal
Matrix Compiler1: 230 bytes object code size  0.1/0.1/[0.1]
Matrix Compiler2: 355 bytes object code size  0.1/0.1/[0.1]

