Circuit: * E:\git\Simulacion-de-circuitos-electronicos\docs\Ejemplos\Mas-conceptos\Draft1.asc

.OP point found by inspection.

Date: Sat Aug 22 11:35:19 2020
Total elapsed time: 0.520 seconds.

tnom = 27
temp = 27
method = modified trap
totiter = 20173
traniter = 20173
tranpoints = 10070
accept = 10056
rejected = 14
matrix size = 10
fillins = 6
solver = Normal
Matrix Compiler1: 934 bytes object code size  0.2/0.1/[0.1]
Matrix Compiler2: 992 bytes object code size  0.1/0.2/[0.1]

