Circuit: * E:\git\Simulacion-de-circuitos-electronicos\docs\Ejemplos\Mas-conceptos\E3-filtro-C.asc

.OP point found by inspection.

Date: Wed Aug 19 13:59:10 2020
Total elapsed time: 0.280 seconds.

tnom = 27
temp = 27
method = modified trap
totiter = 793
traniter = 793
tranpoints = 297
accept = 233
rejected = 64
matrix size = 11
fillins = 0
solver = Normal
Matrix Compiler1: 324 bytes object code size  0.2/0.1/[0.1]
Matrix Compiler2: 757 bytes object code size  0.1/0.2/[0.1]

