Circuit: * E:\git\Simulacion-de-circuitos-electronicos\docs\Ejemplos\Mas-conceptos\E4-estabilizacion-zener.asc

.OP point found by inspection.

Date: Wed Aug 19 16:33:13 2020
Total elapsed time: 0.403 seconds.

tnom = 27
temp = 27
method = modified trap
totiter = 1125
traniter = 1125
tranpoints = 416
accept = 317
rejected = 99
matrix size = 15
fillins = 0
solver = Normal
Matrix Compiler1: 764 bytes object code size  0.3/0.2/[0.2]
Matrix Compiler2: 1.12 KB object code size  0.2/0.3/[0.2]

