Circuit: * E:\git\Simulacion-de-circuitos-electronicos\docs\Ejemplos\Mas-conceptos\E7-autopolarizacion.asc

Direct Newton iteration for .op point succeeded.

Date: Thu Aug 20 11:08:02 2020
Total elapsed time: 0.294 seconds.

tnom = 27
temp = 27
method = modified trap
totiter = 213
traniter = 208
tranpoints = 93
accept = 65
rejected = 28
matrix size = 10
fillins = 0
solver = Normal
Matrix Compiler1: 560 bytes object code size  0.2/0.2/[0.1]
Matrix Compiler2: 762 bytes object code size  0.1/0.2/[0.1]

