Circuit: * E:\git\Simulacion-de-circuitos-electronicos\docs\Ejemplos\Mas-conceptos\E8-amplificador-EC.asc

Direct Newton iteration for .op point succeeded.

Date: Thu Aug 20 12:22:19 2020
Total elapsed time: 0.306 seconds.

tnom = 27
temp = 27
method = trap
totiter = 5
traniter = 0
tranpoints = 0
accept = 0
rejected = 0
matrix size = 10
fillins = 0
solver = Normal
Matrix Compiler1:      30 opcodes
Matrix Compiler2: 774 bytes object code size
