Circuit: * E:\git\Simulacion-de-circuitos-electronicos\docs\Ejemplos\E1-captura\Draft3.asc

Direct Newton iteration for .op point succeeded.

Date: Thu Jul 23 19:16:51 2020
Total elapsed time: 0.248 seconds.

tnom = 27
temp = 27
method = modified trap
totiter = 865
traniter = 862
tranpoints = 432
accept = 274
rejected = 158
matrix size = 2
fillins = 0
solver = Normal
Matrix Compiler1: 36 bytes object code size  0.1/0.0/[0.0]
Matrix Compiler2: 96 bytes object code size  0.1/0.0/[0.0]

