Circuit: * E:\git\Simulacion-de-circuitos-electronicos\docs\Ejemplos\E1-captura\E3-recortador-nivel.asc

.OP point found by inspection.

Date: Tue Jul 21 17:19:16 2020
Total elapsed time: 0.257 seconds.

tnom = 27
temp = 27
method = modified trap
totiter = 340
traniter = 340
tranpoints = 138
accept = 129
rejected = 9
matrix size = 6
fillins = 0
solver = Normal
Matrix Compiler1:      12 opcodes  0.0/[0.0]/0.0
Matrix Compiler2: 394 bytes object code size  0.1/0.1/[0.0]

