Circuit: * E:\git\Simulacion-de-circuitos-electronicos\docs\Ejemplos\Elementos\Draft1.asc

Direct Newton iteration failed to find .op point.  (Use ".option noopiter" to skip.)
Starting Gmin stepping
Gmin = 10
Gmin = 1.07374
vernier = 0.5
vernier = 0.25
vernier = 0.125
vernier = 0.0625
Gmin = 1.08884
vernier = 0.03125
vernier = 0.015625
Gmin = 1.03122
vernier = 0.0078125
vernier = 0.00390625
Gmin = 1.01823
vernier = 0.00520833
vernier = 0.00260417
Gmin = 1.01162
vernier = 0.00347222
vernier = 0.00173611
vernier = 0.00231481
vernier = 0.00115741
Gmin = 1.00877
vernier = 0.00154321
vernier = 0.000771604
Gmin = 1.00673
vernier = 0.00102881
vernier = 0.000514403
vernier = 0.00068587
Gmin = 1.00553
vernier = 0.000514403
vernier = 0.00068587
vernier = 0.000514402
Gmin = 1.00475
Gmin = 0
Gmin stepping failed

Starting source stepping with srcstepmethod=0
Source Step = 3.0303%
Source Step = 33.3333%
Source Step = 63.6364%
Source Step = 93.9394%
Source stepping succeeded in finding the operating point.


Date: Sat Aug 15 11:52:13 2020
Total elapsed time: 0.576 seconds.

tnom = 27
temp = 27
method = modified trap
totiter = 7996
traniter = 2110
tranpoints = 1056
accept = 1052
rejected = 4
matrix size = 18
fillins = 13
solver = Normal
Matrix Compiler1: 1.54 KB object code size  1.9/1.4/[0.6]
Matrix Compiler2: 2.14 KB object code size  0.5/0.4/[0.4]

