Circuit: * E:\git\Simulacion-de-circuitos-electronicos\docs\Ejemplos\Elementos\Draft2.asc

Direct Newton iteration failed to find .op point.  (Use ".option noopiter" to skip.)
Starting Gmin stepping
Gmin = 10
Gmin = 1.07374
vernier = 0.5
vernier = 0.25
vernier = 0.125
vernier = 0.0625
Gmin = 1.08884
vernier = 0.03125
vernier = 0.015625
Gmin = 1.03122
vernier = 0.0078125
vernier = 0.00390625
Gmin = 1.01823
vernier = 0.00520833
vernier = 0.00260417
Gmin = 1.01162
vernier = 0.00347222
vernier = 0.00173611
vernier = 0.00231481
vernier = 0.00115741
Gmin = 1.00877
vernier = 0.00154321
vernier = 0.000771604
Gmin = 1.00673
vernier = 0.00102881
vernier = 0.000514403
vernier = 0.00068587
Gmin = 1.00553
vernier = 0.000514403
vernier = 0.00068587
vernier = 0.000514402
Gmin = 1.00475
Gmin = 0
Gmin stepping failed

Starting source stepping with srcstepmethod=0
Source Step = 3.0303%
Source Step = 33.3333%
Source Step = 63.6364%
Source Step = 93.9394%
Source stepping succeeded in finding the operating point.


Date: Sat Aug 15 13:01:20 2020
Total elapsed time: 4.234 seconds.

tnom = 27
temp = 27
method = modified trap
totiter = 7999
traniter = 2102
tranpoints = 1052
accept = 1050
rejected = 2
matrix size = 20
fillins = 13
solver = Normal
Matrix Compiler1: 1.60 KB object code size  0.8/0.5/[0.2]
Matrix Compiler2: 2.26 KB object code size  0.4/0.4/[0.3]

